dss/import/elor/Transformer_Caso_Base.dss
New "Transformer.TRF_90100" Tap=1 Buses=[100.1.2.3, Nod_90100.1.2.3] XfmrCode=160_0_3A1001 
New "Transformer.TRF_90103" Tap=1 Buses=[103.1.2.3, Nod_90103.1.2.3] XfmrCode=50_0_3 
New "Transformer.TRF_90104" Tap=1 Buses=[104.1.2.3, Nod_90104.1.2.3] XfmrCode=75_0_3 
New "Transformer.TRF_90105" Tap=1 Buses=[105.1.2.3, Nod_90105.1.2.3] XfmrCode=40_0_3A1001 
New "Transformer.TRF_90106" Tap=1 Buses=[106.1.2.3, Nod_90106.1.2.3] XfmrCode=50_0_3 
New "Transformer.TRF_90107" Tap=1 Buses=[107.1.2.3, Nod_90107.1.2.3] XfmrCode=50_0_3 
New "Transformer.TRF_90108" Tap=1 Buses=[108.1.2.3, Nod_90108.1.2.3] XfmrCode=50_0_3 
New "Transformer.TRF_90109" Tap=1 Buses=[109.1.2.3, Nod_90109.1.2.3] XfmrCode=50_0_3 
New "Transformer.TRF_90110" Tap=1 Buses=[110.1.2.3, Nod_90110.1.2.3] XfmrCode=160_0_3A1001 
New "Transformer.TRF_90111" Tap=1 Buses=[111.1.2.3, Nod_90111.1.2.3] XfmrCode=40_0_3A1001 
New "Transformer.TRF_90112" Tap=1 Buses=[112.1.2.3, Nod_90112.1.2.3] XfmrCode=100_0_3 
New "Transformer.TRF_90113" Tap=1 Buses=[113.1.2.3, Nod_90113.1.2.3] XfmrCode=75_0_3 
New "Transformer.TRF_90114" Tap=1 Buses=[114.1.2.3, Nod_90114.1.2.3] XfmrCode=40_0_3A1001 
New "Transformer.TRF_90115" Tap=1 Buses=[115.1.2.3, Nod_90115.1.2.3] XfmrCode=75_0_3 
New "Transformer.TRF_90116" Tap=1 Buses=[116.1.2.3, Nod_90116.1.2.3] XfmrCode=75_0_3 
New "Transformer.TRF_90117" Tap=1 Buses=[117.1.2.3, Nod_90117.1.2.3] XfmrCode=50_0_3 
New "Transformer.TRF_90118" Tap=1 Buses=[118.1.2.3, Nod_90118.1.2.3] XfmrCode=25_0_3 
New "Transformer.TRF_90119" Tap=1 Buses=[119.1.2.3, Nod_90119.1.2.3] XfmrCode=25_0_3 
New "Transformer.TRF_90120" Tap=1 Buses=[120.1.0, Nod_90120.1.0] XfmrCode=25_0_1 
New "Transformer.TRF_90121" Tap=1 Buses=[121.1.2.3, Nod_90121.1.2.3] XfmrCode=50_0_3 
New "Transformer.TRF_90122" Tap=1 Buses=[122.1.2.3, Nod_90122.1.2.3] XfmrCode=50_0_3 
New "Transformer.TRF_90123" Tap=1 Buses=[123.1.2.3, Nod_90123.1.2.3] XfmrCode=75_0_3 
New "Transformer.TRF_90124" Tap=1 Buses=[124.1.2.3, Nod_90124.1.2.3] XfmrCode=75_0_3 
New "Transformer.TRF_90125" Tap=1 Buses=[125.1.2.3, Nod_90125.1.2.3] XfmrCode=25_0_3 
New "Transformer.TRF_90126" Tap=1 Buses=[126.1.2.3, Nod_90126.1.2.3] XfmrCode=40_0_3A1001 
New "Transformer.TRF_90127" Tap=1 Buses=[127.1.2.3, Nod_90127.1.2.3] XfmrCode=160_0_3A1001 
New "Transformer.TRF_90260" Tap=1 Buses=[260.1.2.3, Nod_90260.1.2.3] XfmrCode=50_0_3 
New "Transformer.TRF_90261" Tap=1 Buses=[261.1.2.3, Nod_90261.1.2.3] XfmrCode=50_0_3 
New "Transformer.TRF_90262" Tap=1 Buses=[262.1.2.3, Nod_90262.1.2.3] XfmrCode=25_0_3 
New "Transformer.TRF_90263" Tap=1 Buses=[263.1.2.3, Nod_90263.1.2.3] XfmrCode=100_0_3 
New "Transformer.TRF_90273" Tap=1 Buses=[273.1.2.3, Nod_90273.1.2.3] XfmrCode=100_0_3 
New "Transformer.TRF_90274" Tap=1 Buses=[274.1.2.3, Nod_90274.1.2.3] XfmrCode=125_0_3A1001 
New "Transformer.TRF_90289" Tap=1 Buses=[289.1.2.3, Nod_90289.1.2.3] XfmrCode=100_0_3 
New "Transformer.TRF_90301" Tap=1 Buses=[301.1.2.3, Nod_90301.1.2.3] XfmrCode=50_0_3 
New "Transformer.TRF_90322" Tap=1 Buses=[322.1.2.3, Nod_90322.1.2.3] XfmrCode=50_0_3 
New "Transformer.TRF_90323" Tap=1 Buses=[323.1.2.3, Nod_90323.1.2.3] XfmrCode=10_0_3 
New "Transformer.TRF_90382" Tap=1 Buses=[382.1.2.3, Nod_90382.1.2.3] XfmrCode=160_0_3A1001 
New "Transformer.TRF_90383" Tap=1 Buses=[383.1.2.3, Nod_90383.1.2.3] XfmrCode=160_0_3A1001 
New "Transformer.TRF_90389" Tap=1 Buses=[389.1.2.3, Nod_90389.1.2.3] XfmrCode=75_0_3 
New "Transformer.TRF_90390" Tap=1 Buses=[390.1.2.3, Nod_90390.1.2.3] XfmrCode=25_0_3 
New "Transformer.TRF_90391" Tap=1 Buses=[391.1.2.3, Nod_90391.1.2.3] XfmrCode=25_0_3 
New "Transformer.TRF_90394" Tap=1 Buses=[394.1.2.3, Nod_90394.1.2.3] XfmrCode=160_0_3A1001 
New "Transformer.TRF_90401" Tap=1 Buses=[401.1.2.3, Nod_90401.1.2.3] XfmrCode=75_0_3 
New "Transformer.TRF_90402" Tap=1 Buses=[402.1.2.3, Nod_90402.1.2.3] XfmrCode=100_0_3 
New "Transformer.TRF_90403" Tap=1 Buses=[403.1.2.3, Nod_90403.1.2.3] XfmrCode=200_0_3A1001 
New "Transformer.TRF_90404" Tap=1 Buses=[404.1.2.3, Nod_90404.1.2.3] XfmrCode=100_0_3 
New "Transformer.TRF_90405" Tap=1 Buses=[405.1.2.3, Nod_90405.1.2.3] XfmrCode=50_0_3 
New "Transformer.TRF_90406" Tap=1 Buses=[406.1.2.3, Nod_90406.1.2.3] XfmrCode=160_0_3A1001 
New "Transformer.TRF_90492" Tap=1 Buses=[492.1.2.3, Nod_90492.1.2.3] XfmrCode=125_0_3A1001 
New "Transformer.TRF_90493" Tap=1 Buses=[493.1.2.3, Nod_90493.1.2.3] XfmrCode=125_0_3A1001 
New "Transformer.TRF_90494" Tap=1 Buses=[494.1.2.3, Nod_90494.1.2.3] XfmrCode=160_0_3A1001 
New "Transformer.TRF_90495" Tap=1 Buses=[495.1.2.3, Nod_90495.1.2.3] XfmrCode=75_0_3 
New "Transformer.TRF_90496" Tap=1 Buses=[496.1.2.3, Nod_90496.1.2.3] XfmrCode=100_0_3 
New "Transformer.TRF_90527" Tap=1 Buses=[527.1.2.3, Nod_90527.1.2.3] XfmrCode=50_0_3 
New "Transformer.TRF_90528" Tap=1 Buses=[528.1.2.3, Nod_90528.1.2.3] XfmrCode=125_0_3A1001 
New "Transformer.TRF_90529" Tap=1 Buses=[529.1.2.3, Nod_90529.1.2.3] XfmrCode=100_0_3 
New "Transformer.TRF_90530" Tap=1 Buses=[530.1.2.3, Nod_90530.1.2.3] XfmrCode=37_5_3 
New "Transformer.TRF_90674" Tap=1 Buses=[674.1.2.3, Nod_90674.1.2.3] XfmrCode=160_0_3A1001 
New "Transformer.TRF_90675" Tap=1 Buses=[675.1.2.3, Nod_90675.1.2.3] XfmrCode=160_0_3A1001 
New "Transformer.TRF_90676" Tap=1 Buses=[676.1.2.3, Nod_90676.1.2.3] XfmrCode=25_0_3 
New "Transformer.TRF_90677" Tap=1 Buses=[677.1.2.3, Nod_90677.1.2.3] XfmrCode=200_0_3A1001 
New "Transformer.TRF_90678" Tap=1 Buses=[678.1.2.3, Nod_90678.1.2.3] XfmrCode=25_0_3 
New "Transformer.TRF_90679" Tap=1 Buses=[679.1.2.3, Nod_90679.1.2.3] XfmrCode=250_0_3A1001 
New "Transformer.TRF_90680" Tap=1 Buses=[680.1.2.3, Nod_90680.1.2.3] XfmrCode=400_0_3A1001 
New "Transformer.TRF_90681" Tap=1 Buses=[681.1.2.3, Nod_90681.1.2.3] XfmrCode=100_0_3 
New "Transformer.TRF_90682" Tap=1 Buses=[682.1.2.3, Nod_90682.1.2.3] XfmrCode=315_0_3A1001 
New "Transformer.TRF_90683" Tap=1 Buses=[683.1.2.3, Nod_90683.1.2.3] XfmrCode=75_0_3 
New "Transformer.TRF_90684" Tap=1 Buses=[684.1.2.3, Nod_90684.1.2.3] XfmrCode=640_0_3 
New "Transformer.TRF_90685" Tap=1 Buses=[685.1.2.3, Nod_90685.1.2.3] XfmrCode=160_0_3A1001 
New "Transformer.TRF_90686" Tap=1 Buses=[686.1.2.3, Nod_90686.1.2.3] XfmrCode=25_0_3 
New "Transformer.TRF_90687" Tap=1 Buses=[687.1.2.3, Nod_90687.1.2.3] XfmrCode=100_0_3 
New "Transformer.TRF_90688" Tap=1 Buses=[688.1.2.3, Nod_90688.1.2.3] XfmrCode=100_0_3 
New "Transformer.TRF_90689" Tap=1 Buses=[689.1.2.3, Nod_90689.1.2.3] XfmrCode=100_0_3 
New "Transformer.TRF_90690" Tap=1 Buses=[690.1.2.3, Nod_90690.1.2.3] XfmrCode=25_0_3 
New "Transformer.TRF_90691" Tap=1 Buses=[691.1.2.3, Nod_90691.1.2.3] XfmrCode=160_0_3A1001 
New "Transformer.TRF_90692" Tap=1 Buses=[692.1.2.3, Nod_90692.1.2.3] XfmrCode=80_0_3A1001 
New "Transformer.TRF_90693" Tap=1 Buses=[693.1.2.3, Nod_90693.1.2.3] XfmrCode=15_0_3 
New "Transformer.TRF_90694" Tap=1 Buses=[694.1.2.3, Nod_90694.1.2.3] XfmrCode=25_0_3 
New "Transformer.TRF_90695" Tap=1 Buses=[695.1.2.3, Nod_90695.1.2.3] XfmrCode=100_0_3 
New "Transformer.TRF_90696" Tap=1 Buses=[696.1.2.3, Nod_90696.1.2.3] XfmrCode=150_0_3 
New "Transformer.TRF_90697" Tap=1 Buses=[697.1.2.3, Nod_90697.1.2.3] XfmrCode=100_0_3 
New "Transformer.TRF_90698" Tap=1 Buses=[698.1.2.3, Nod_90698.1.2.3] XfmrCode=100_0_3 
New "Transformer.TRF_90699" Tap=1 Buses=[699.1.2.3, Nod_90699.1.2.3] XfmrCode=200_0_3A1001 
New "Transformer.TRF_90700" Tap=1 Buses=[700.1.2.3, Nod_90700.1.2.3] XfmrCode=100_0_3 
New "Transformer.TRF_90701" Tap=1 Buses=[701.1.2.3, Nod_90701.1.2.3] XfmrCode=75_0_3 
New "Transformer.TRF_90702" Tap=1 Buses=[702.1.2, Nod_90702.1.2] XfmrCode=25_0_2 
New "Transformer.TRF_90703" Tap=1 Buses=[703.1.2.3, Nod_90703.1.2.3] XfmrCode=50_0_3 
New "Transformer.TRF_90704" Tap=1 Buses=[704.1.2.3, Nod_90704.1.2.3] XfmrCode=25_0_3 
New "Transformer.TRF_90705" Tap=1 Buses=[705.1.2.3, Nod_90705.1.2.3] XfmrCode=50_0_3 
New "Transformer.TRF_90758" Tap=1 Buses=[758.1.2.3, Nod_90758.1.2.3] XfmrCode=160_0_3A1001 
New "Transformer.TRF_90759" Tap=1 Buses=[759.1.2.3, Nod_90759.1.2.3] XfmrCode=160_0_3A1001 
New "Transformer.TRF_90760" Tap=1 Buses=[760.1.2.3, Nod_90760.1.2.3] XfmrCode=160_0_3A1001 
New "Transformer.TRF_90762" Tap=1 Buses=[762.1.2.3, Nod_90762.1.2.3] XfmrCode=75_0_3 
New "Transformer.TRF_90771" Tap=1 Buses=[771.1.2.3, Nod_90771.1.2.3] XfmrCode=100_0_3 
New "Transformer.TRF_90772" Tap=1 Buses=[772.1.2.3, Nod_90772.1.2.3] XfmrCode=100_0_3 
New "Transformer.TRF_90780" Tap=1 Buses=[780.1.2.3, Nod_90780.1.2.3] XfmrCode=50_0_3 
New "Transformer.TRF_90800" Tap=1 Buses=[800.1.0, Nod_90800.1.0] XfmrCode=10_0_1 
New "Transformer.TRF_90801" Tap=1 Buses=[801.1.2.3, Nod_90801.1.2.3] XfmrCode=50_0_3 
New "Transformer.TRF_90802" Tap=1 Buses=[802.1.2.3, Nod_90802.1.2.3] XfmrCode=25_0_3 
New "Transformer.TRF_90803" Tap=1 Buses=[803.1.2.3, Nod_90803.1.2.3] XfmrCode=40_0_3A1001 
New "Transformer.TRF_90807" Tap=1 Buses=[807.1.2.3, Nod_90807.1.2.3] XfmrCode=125_0_3A1001 
New "Transformer.TRF_90809" Tap=1 Buses=[809.1.2.3, Nod_90809.1.2.3] XfmrCode=40_0_3A1001 
New "Transformer.TRF_90812" Tap=1 Buses=[812.1.2.3, Nod_90812.1.2.3] XfmrCode=75_0_3 
New "Transformer.TRF_90817" Tap=1 Buses=[817.1.2.3, Nod_90817.1.2.3] XfmrCode=50_0_3 
New "Transformer.TRF_90818" Tap=1 Buses=[818.1.2.3, Nod_90818.1.2.3] XfmrCode=100_0_3 
New "Transformer.TRF_90824" Tap=1 Buses=[824.1.2.3, Nod_90824.1.2.3] XfmrCode=160_0_3A1001 
New "Transformer.TRF_90829" Tap=1 Buses=[829.1.2.3, Nod_90829.1.2.3] XfmrCode=100_0_3 
New "Transformer.TRF_90830" Tap=1 Buses=[830.1.2.3, Nod_90830.1.2.3] XfmrCode=100_0_3 
New "Transformer.TRF_90834" Tap=1 Buses=[834.1.2.3, Nod_90834.1.2.3] XfmrCode=75_0_3 
New "Transformer.TRF_90835" Tap=1 Buses=[835.1.2.3, Nod_90835.1.2.3] XfmrCode=50_0_3 
New "Transformer.TRF_90844" Tap=1 Buses=[844.1.2.3, Nod_90844.1.2.3] XfmrCode=50_0_3 
New "Transformer.TRF_90849" Tap=1 Buses=[849.1.2.3, Nod_90849.1.2.3] XfmrCode=200_0_3A1001 
New "Transformer.TRF_90859" Tap=1 Buses=[859.1.2.3, Nod_90859.1.2.3] XfmrCode=100_0_3 
New "Transformer.TRF_90863" Tap=1 Buses=[863.1.2.3, Nod_90863.1.2.3] XfmrCode=25_0_3 
New "Transformer.TRF_90867" Tap=1 Buses=[867.1.2.3, Nod_90867.1.2.3] XfmrCode=200_0_3A1001 
New "Transformer.TRF_90868" Tap=1 Buses=[868.1.2.3, Nod_90868.1.2.3] XfmrCode=250_0_3A1001 
New "Transformer.TRF_90962" Tap=1 Buses=[962.1.2.3, Nod_90962.1.2.3] XfmrCode=100_0_3 
New "Transformer.TRF_90963" Tap=1 Buses=[963.1.2.3, Nod_90963.1.2.3] XfmrCode=75_0_3 
New "Transformer.TRF_90964" Tap=1 Buses=[964.1.2.3, Nod_90964.1.2.3] XfmrCode=100_0_3 
New "Transformer.TRF_90965" Tap=1 Buses=[965.1.2.3, Nod_90965.1.2.3] XfmrCode=100_0_3 
New "Transformer.TRF_90970" Tap=1 Buses=[970.1.2.3, Nod_90970.1.2.3] XfmrCode=75_0_3 
New "Transformer.TRF_90989" Tap=1 Buses=[61445.1.2.3, Nod_90989.1.2.3] XfmrCode=75_0_3 
New "Transformer.TRF_90990" Tap=1 Buses=[990.1.2.3, Nod_90990.1.2.3] XfmrCode=200_0_3A1001 
New "Transformer.TRF_90995" Tap=1 Buses=[995.1.2.3, Nod_90995.1.2.3] XfmrCode=250_0_3A1001 
New "Transformer.TRF_91005" Tap=1 Buses=[1005.1.2.3, Nod_91005.1.2.3] XfmrCode=100_0_3 
New "Transformer.TRF_91006" Tap=1 Buses=[1006.1.2.3, Nod_91006.1.2.3] XfmrCode=75_0_3 
New "Transformer.TRF_91009" Tap=1 Buses=[1009.1.2.3, Nod_91009.1.2.3] XfmrCode=75_0_3 
New "Transformer.TRF_91011" Tap=1 Buses=[1011.1.2.3, Nod_91011.1.2.3] XfmrCode=75_0_3 
New "Transformer.TRF_91017" Tap=1 Buses=[1017.1.2.3, Nod_91017.1.2.3] XfmrCode=100_0_3 
New "Transformer.TRF_91028" Tap=1 Buses=[1028.1.0, Nod_91028.1.0] XfmrCode=10_0_1 
New "Transformer.TRF_91030" Tap=1 Buses=[1030.1.2.3, Nod_91030.1.2.3] XfmrCode=100_0_3 
New "Transformer.TRF_91037" Tap=1 Buses=[1037.1.2.3, Nod_91037.1.2.3] XfmrCode=100_0_3 
New "Transformer.TRF_91040" Tap=1 Buses=[1040.1.2.3, Nod_91040.1.2.3] XfmrCode=315_0_3A1001 
New "Transformer.TRF_91041" Tap=1 Buses=[1041.1.2.3, Nod_91041.1.2.3] XfmrCode=160_0_3A1001 
New "Transformer.TRF_91046" Tap=1 Buses=[1046.1.2.3, Nod_91046.1.2.3] XfmrCode=50_0_3 
New "Transformer.TRF_91052" Tap=1 Buses=[1052.1.2.3, Nod_91052.1.2.3] XfmrCode=75_0_3 
New "Transformer.TRF_91055" Tap=1 Buses=[68219.1.2.3, Nod_91055.1.2.3] XfmrCode=75_0_3 
New "Transformer.TRF_91056" Tap=1 Buses=[1056.1.2.3, Nod_91056.1.2.3] XfmrCode=40_0_3A1001 
New "Transformer.TRF_91067" Tap=1 Buses=[1067.1.2.3, Nod_91067.1.2.3] XfmrCode=160_0_3A1001 
New "Transformer.TRF_91074" Tap=1 Buses=[1074.1.2.3, Nod_91074.1.2.3] XfmrCode=160_0_3A1001 
New "Transformer.TRF_91107" Tap=1 Buses=[1107.1.0, Nod_91107.1.0] XfmrCode=25_0_1 
New "Transformer.TRF_91117" Tap=1 Buses=[1117.1.2.3, Nod_91117.1.2.3] XfmrCode=25_0_3 
New "Transformer.TRF_91119" Tap=1 Buses=[1119.1.2.3, Nod_91119.1.2.3] XfmrCode=500_0_3A1001 
New "Transformer.TRF_91131" Tap=1 Buses=[1131.1.2.3, Nod_91131.1.2.3] XfmrCode=75_0_3 
New "Transformer.TRF_91134" Tap=1 Buses=[1134.1.2.3, Nod_91134.1.2.3] XfmrCode=50_0_3 
New "Transformer.TRF_91136" Tap=1 Buses=[1136.1.2.3, Nod_91136.1.2.3] XfmrCode=75_0_3 
New "Transformer.TRF_91137" Tap=1 Buses=[1137.1.2.3, Nod_91137.1.2.3] XfmrCode=50_0_3 
New "Transformer.TRF_91138" Tap=1 Buses=[1138.1.2.3, Nod_91138.1.2.3] XfmrCode=75_0_3 
New "Transformer.TRF_91139" Tap=1 Buses=[1139.1.2.3, Nod_91139.1.2.3] XfmrCode=75_0_3 
New "Transformer.TRF_91144" Tap=1 Buses=[1144.1.2.3, Nod_91144.1.2.3] XfmrCode=75_0_3 
New "Transformer.TRF_91145" Tap=1 Buses=[1145.1.2.3, Nod_91145.1.2.3] XfmrCode=50_0_3 
New "Transformer.TRF_91146" Tap=1 Buses=[1146.1.2.3, Nod_91146.1.2.3] XfmrCode=75_0_3 
New "Transformer.TRF_91147" Tap=1 Buses=[1147.1.2.3, Nod_91147.1.2.3] XfmrCode=25_0_3 
New "Transformer.TRF_91155" Tap=1 Buses=[1155.1.2.3, Nod_91155.1.2.3] XfmrCode=50_0_3 
New "Transformer.TRF_91156" Tap=1 Buses=[1156.1.2.3, Nod_91156.1.2.3] XfmrCode=75_0_3 
New "Transformer.TRF_91157" Tap=1 Buses=[1157.1.2.3, Nod_91157.1.2.3] XfmrCode=75_0_3 
New "Transformer.TRF_91158" Tap=1 Buses=[1158.1.2.3, Nod_91158.1.2.3] XfmrCode=75_0_3 
New "Transformer.TRF_91159" Tap=1 Buses=[1159.1.2.3, Nod_91159.1.2.3] XfmrCode=75_0_3 
New "Transformer.TRF_91160" Tap=1 Buses=[1160.1.2.3, Nod_91160.1.2.3] XfmrCode=75_0_3 
New "Transformer.TRF_91161" Tap=1 Buses=[1161.1.2.3, Nod_91161.1.2.3] XfmrCode=75_0_3 
New "Transformer.TRF_91181" Tap=1 Buses=[1181.1.2.3, Nod_91181.1.2.3] XfmrCode=100_0_3 
New "Transformer.TRF_91228" Tap=1 Buses=[1228.1.2.3, Nod_91228.1.2.3] XfmrCode=75_0_3 
New "Transformer.TRF_91233" Tap=1 Buses=[1233.1.2.3, Nod_91233.1.2.3] XfmrCode=250_0_3A1001 
New "Transformer.TRF_91234" Tap=1 Buses=[1234.1.2.3, Nod_91234.1.2.3] XfmrCode=75_0_3 
New "Transformer.TRF_91241" Tap=1 Buses=[1241.1.2.3, Nod_91241.1.2.3] XfmrCode=50_0_3 
New "Transformer.TRF_91245" Tap=1 Buses=[1245.1.2.3, Nod_91245.1.2.3] XfmrCode=50_0_3 
New "Transformer.TRF_91246" Tap=1 Buses=[1246.1.2.3, Nod_91246.1.2.3] XfmrCode=75_0_3 
New "Transformer.TRF_91247" Tap=1 Buses=[1247.1.2.3, Nod_91247.1.2.3] XfmrCode=125_0_3A1001 
New "Transformer.TRF_91248" Tap=1 Buses=[1248.1.2.3, Nod_91248.1.2.3] XfmrCode=200_0_3A1001 
New "Transformer.TRF_91251" Tap=1 Buses=[1251.1.2.3, Nod_91251.1.2.3] XfmrCode=160_0_3A1001 
New "Transformer.TRF_91252" Tap=1 Buses=[1252.1.2.3, Nod_91252.1.2.3] XfmrCode=250_0_3A1001 
New "Transformer.TRF_91253" Tap=1 Buses=[1253.1.2.3, Nod_91253.1.2.3] XfmrCode=75_0_3 
New "Transformer.TRF_91254" Tap=1 Buses=[1254.1.2.3, Nod_91254.1.2.3] XfmrCode=100_0_3 
New "Transformer.TRF_91255" Tap=1 Buses=[1255.1.2.3, Nod_91255.1.2.3] XfmrCode=75_0_3 
New "Transformer.TRF_91256" Tap=1 Buses=[1256.1.2.3, Nod_91256.1.2.3] XfmrCode=50_0_3 
New "Transformer.TRF_91257" Tap=1 Buses=[1257.1.2.3, Nod_91257.1.2.3] XfmrCode=100_0_3 
New "Transformer.TRF_91258" Tap=1 Buses=[1258.1.2.3, Nod_91258.1.2.3] XfmrCode=100_0_3 
New "Transformer.TRF_91259" Tap=1 Buses=[1259.1.2.3, Nod_91259.1.2.3] XfmrCode=100_0_3 
New "Transformer.TRF_91262" Tap=1 Buses=[1262.1.2.3, Nod_91262.1.2.3] XfmrCode=50_0_3 
New "Transformer.TRF_91263" Tap=1 Buses=[1263.1.2.3, Nod_91263.1.2.3] XfmrCode=75_0_3 
New "Transformer.TRF_91264" Tap=1 Buses=[1264.1.2.3, Nod_91264.1.2.3] XfmrCode=75_0_3 
New "Transformer.TRF_91265" Tap=1 Buses=[1265.1.2.3, Nod_91265.1.2.3] XfmrCode=75_0_3 
